Circuit: * C:\Users\stagiair\Documents\Stage Justin\DAC ADDON\Simulatie LTC6090\Draft1.asc

Direct Newton iteration for .op point succeeded.

Date: Fri Oct 11 15:19:28 2024
Total elapsed time: 0.320 seconds.

tnom = 27
temp = 27
method = modified trap
totiter = 75425
traniter = 75422
tranpoints = 37712
accept = 24208
rejected = 13504
matrix size = 4
fillins = 0
solver = Normal
Avg thread counts: 1.0/1.0/1.0/1.0
Matrix Compiler1:       6 opcodes  0.1/[0.1]/0.1
Matrix Compiler2: off  [0.1]/0.1/0.1

