Circuit: * C:\Users\stagiair\Documents\Stage Justin\DAC ADDON\Simulatie LTC6090\LTC6090.asc

Direct Newton iteration failed to find .op point.  (Use ".option noopiter" to skip.)
Starting Gmin stepping
Gmin = 10
Gmin = 1.07374
Gmin = 0.115292
Gmin = 0.0123794
Gmin = 0.00132923
Gmin = 0.000142725
Gmin = 1.5325e-05
vernier = 0.5
Gmin = 2.5711e-06
vernier = 0.666667
Gmin = 6.6012e-07
vernier = 0.888888
vernier = 1
Gmin = 8.6905e-08
vernier = 0.5
Gmin = 1.45802e-08
vernier = 0.25
vernier = 0.333333
vernier = 0.166667
Gmin = 1.03369e-08
vernier = 0.222222
Gmin = 6.34731e-09
vernier = 0.296296
vernier = 0.395061
Gmin = 2.83638e-09
vernier = 0.526748
vernier = 0.702331
Gmin = 8.09264e-10
vernier = 0.936441
Gmin = 1.19937e-10
vernier = 1
Gmin = 1.28782e-11
Gmin = 1.38278e-12
Gmin = 1.48475e-13
Gmin = 0
Gmin stepping succeeded in finding the operating point.


Date: Wed Oct  9 16:40:43 2024
Total elapsed time: 0.124 seconds.

tnom = 27
temp = 27
method = trap
totiter = 1067
traniter = 0
tranpoints = 0
accept = 0
rejected = 0
matrix size = 67
fillins = 77
solver = Normal
Avg thread counts: 1.4/0.0/3.2/1.4
Matrix Compiler1:     360 opcodes
Matrix Compiler2: 7.55 KB object code size  0.8/1.3/[0.6]

